<?xml version="1.0" encoding="UTF-8"?>

<!-- generated on 2026-06-20T16:31:32.082657-03:00 by Eclipse SUMO sumo 1.27.0
-->

<sumoConfiguration xmlns:xsi="http://www.w3.org/2001/XMLSchema-instance" xsi:noNamespaceSchemaLocation="http://sumo.dlr.de/xsd/sumoConfiguration.xsd">

    <input>
        <net-file value="teste.net.xml"/>
        <route-files value="teste.rou.xml"/>
    </input>

</sumoConfiguration>
